* "spice" description for "TIGFET10nm", "TIGFET_PCELL_SP15CP15", "hSpiceD" 


*simulator lang=spice

*.HDL /home/u1081888/TIGFET-10nm-PDK/TIGFET10nm/TIGFET_PCELL_SP15CP15_N1/veriloga/veriloga.va

.SUBCKT TIGFET_PCELL_SP15CP15_N1 d pgd cg pgs s
*XMOS d pgd cg pgs s TIGFET_PCELL
.ENDS
