* "spice" description for "TIGFET10nm", "TIGFET_PCELL_SP15CP15", "hSpiceD" 


simulator lang=spice

.SUBCKT TIGFET_PCELL_SP15CP15 d pgd cg pgs s Cch_pg = 2.0763e-17 Cch_cg = 2.0763e-17 Cof_spg = 6.9637e-18 Cof_cgpg = 3.1661e-18 Cside_spgs = 5.3932e-18 Cside_scg = 3.4529e-18 Cside_spgd = 2.9376e-18 Cside_cgpg = 4.5154e-18 Cside_pgpg = 3.2916e-18 Cif_spgs = 3.4267e-18 Cif_scg = 1.4277e-18 Cif_spgd = 8.887e-19 

.ENDS