* File: G1_INV1_N2.pex.netlist
* Created: Fri Feb 25 16:24:20 2022
* Program "Calibre xRC"
* Version "v2021.2_37.20"
* 
.include "G1_INV1_N2.pex.netlist.pex"
.subckt G1_INV1_N2  VDD A VSS Z
* 
* Z	Z
* VSS	VSS
* A	A
* VDD	VDD
XI6.X0 N_Z_XI6.X0_D N_VSS_XI6.X0_PGD N_A_XI6.X0_CG N_VSS_XI6.X0_PGD
+ N_VDD_XI6.X0_S TIGFET1
XI4.X0 N_Z_XI4.X0_D N_VDD_XI4.X0_PGD N_A_XI4.X0_CG N_VDD_XI4.X0_PGD
+ N_VSS_XI4.X0_S TIGFET1
*
.include "G1_INV1_N2.pex.netlist.G1_INV1_N2.pxi"
*
.ends
*
*
